@<TRIPOS>MOLECULE
RES
23 22 1 0 1
SMALL
NO_CHARGES
@<TRIPOS>CRYSIN
   14.7037     8.0376    10.0379    90.0000    90.0000    90.0000  1  1
@<TRIPOS>ATOM
       1 C           -3.3311    -0.0625     1.8967 C             1 RES     
       2 C           -2.6869     0.1540     0.5541 C             1 RES     
       3 C           -3.3831     0.7331    -0.4303 C             1 RES     
       4 C           -1.3139    -0.3420     0.3125 C             1 RES     
       5 O           -0.6982    -0.9517     1.2299 O             1 RES     
       6 O           -0.7029    -0.1430    -0.9329 O             1 RES     
       7 C            0.6340    -0.5438    -1.2263 C             1 RES     
       8 C            1.6363     0.4228    -0.5848 C             1 RES     
       9 C            3.0819     0.0714    -0.9444 C             1 RES     
      10 N            3.4509    -1.2156    -0.3659 N             1 RES     
      11 N            4.3782    -1.3088     0.4389 N             1 RES     
      12 N            5.3043    -1.4022     1.2429 N             1 RES     
      13 H           -2.5980     0.1276     2.7088 H             1 RES     
      14 H           -3.6886    -1.1109     1.9697 H             1 RES     
      15 H           -4.1920     0.6227     2.0531 H             1 RES     
      16 H           -2.9566     0.8801    -1.4144 H             1 RES     
      17 H           -4.3994     1.0711    -0.2700 H             1 RES     
      18 H            0.8049    -1.5846    -0.8743 H             1 RES     
      19 H            0.7667    -0.5280    -2.3291 H             1 RES     
      20 H            1.5211     0.4131     0.5205 H             1 RES     
      21 H            1.4199     1.4530    -0.9422 H             1 RES     
      22 H            3.7530     0.8743    -0.5644 H             1 RES     
      23 H            3.1996     0.0234    -2.0480 H             1 RES     
@<TRIPOS>BOND
       1        2        1 1
       2       13        1 1
       3       14        1 1
       4       15        1 1
       5        3        2 1
       6        4        2 1
       7       16        3 1
       8       17        3 1
       9        5        4 1
      10        6        4 1
      11        7        6 1
      12        8        7 1
      13       18        7 1
      14       19        7 1
      15        9        8 1
      16       20        8 1
      17       21        8 1
      18       10        9 1
      19       22        9 1
      20       23        9 1
      21       11       10 1
      22       12       11 1
@<TRIPOS>SUBSTRUCTURE
       1 RES             1 RESIDUE    0 **** ROOT      0
