@<TRIPOS>MOLECULE
RES
54 56 1 0 1
SMALL
NO_CHARGES
@<TRIPOS>CRYSIN
   24.0450    11.2947     9.2339    90.0000    90.0000    90.0000  1  1
@<TRIPOS>ATOM
       1 C            9.1043     1.5302     0.0701 C             1 RES     
       2 C            8.8401     2.5796     0.8450 C             1 RES     
       3 C            8.0408     0.7111    -0.5286 C             1 RES     
       4 O            8.3576    -0.2712    -1.2527 O             1 RES     
       5 O            6.6938     1.0235    -0.3029 O             1 RES     
       6 C            5.6107     0.2444    -0.8067 C             1 RES     
       7 C            5.4369    -1.0322     0.0241 C             1 RES     
       8 C            4.3008    -1.9147    -0.5056 C             1 RES     
       9 N            3.0089    -1.2493    -0.3646 N             1 RES     
      10 C            2.3051    -1.0912     0.7688 C             1 RES     
      11 C            1.1808    -0.3774     0.4178 C             1 RES     
      12 N            1.2264    -0.1290    -0.9070 N             1 RES     
      13 N            2.3529    -0.6652    -1.3551 N             1 RES     
      14 C            0.0492     0.0122     1.3186 C             1 RES     
      15 C           -0.8622    -1.1809     1.6477 C             1 RES     
      16 C           -1.5125    -1.8493     0.4190 C             1 RES     
      17 C           -2.3747    -0.9178    -0.4519 C             1 RES     
      18 C           -3.5755    -0.3293     0.3087 C             1 RES     
      19 C           -4.4975     0.4993    -0.6106 C             1 RES     
      20 C           -5.5869     1.2295     0.1940 C             1 RES     
      21 C           -6.9006     0.3960     0.1731 C             1 RES     
      22 C           -6.6862    -0.8715    -0.6483 C             1 RES     
      23 S           -5.3431    -0.5645    -1.8258 S             1 RES     
      24 N           -7.9025     1.2511    -0.4568 N             1 RES     
      25 C           -7.2834     2.4688    -0.7923 C             1 RES     
      26 O           -7.8837     3.4267    -1.3459 O             1 RES     
      27 N           -5.9218     2.5021    -0.4400 N             1 RES     
      28 H           10.1377     1.2703    -0.1251 H             1 RES     
      29 H            7.8234     2.8770     1.0688 H             1 RES     
      30 H            9.6529     3.1563     1.2669 H             1 RES     
      31 H            4.6866     0.8560    -0.7387 H             1 RES     
      32 H            5.7828    -0.0025    -1.8775 H             1 RES     
      33 H            5.2370    -0.7609     1.0834 H             1 RES     
      34 H            6.3788    -1.6205    -0.0039 H             1 RES     
      35 H            4.2848    -2.8680     0.0660 H             1 RES     
      36 H            4.4823    -2.1669    -1.5733 H             1 RES     
      37 H            2.5835    -1.4619     1.7470 H             1 RES     
      38 H           -0.5368     0.8355     0.8592 H             1 RES     
      39 H            0.4720     0.4082     2.2667 H             1 RES     
      40 H           -0.2627    -1.9485     2.1845 H             1 RES     
      41 H           -1.6504    -0.8503     2.3564 H             1 RES     
      42 H           -0.7167    -2.2930    -0.2175 H             1 RES     
      43 H           -2.1433    -2.6940     0.7720 H             1 RES     
      44 H           -1.7534    -0.1000    -0.8737 H             1 RES     
      45 H           -2.7419    -1.5183    -1.3110 H             1 RES     
      46 H           -4.1524    -1.1461     0.7933 H             1 RES     
      47 H           -3.1901     0.3395     1.1074 H             1 RES     
      48 H           -3.8728     1.2396    -1.1579 H             1 RES     
      49 H           -5.2694     1.4277     1.2417 H             1 RES     
      50 H           -7.2277     0.1412     1.2049 H             1 RES     
      51 H           -7.6087    -1.1699    -1.1903 H             1 RES     
      52 H           -6.3891    -1.7069     0.0206 H             1 RES     
      53 H           -8.9073     1.0123    -0.6124 H             1 RES     
      54 H           -5.2769     3.3132    -0.5705 H             1 RES     
@<TRIPOS>BOND
       1        2        1 1
       2        3        1 1
       3       28        1 1
       4       29        2 1
       5       30        2 1
       6        4        3 1
       7        5        3 1
       8        6        5 1
       9        7        6 1
      10       31        6 1
      11       32        6 1
      12        8        7 1
      13       33        7 1
      14       34        7 1
      15        9        8 1
      16       35        8 1
      17       36        8 1
      18       10        9 1
      19       13        9 1
      20       11       10 1
      21       37       10 1
      22       12       11 1
      23       14       11 1
      24       13       12 1
      25       15       14 1
      26       38       14 1
      27       39       14 1
      28       16       15 1
      29       40       15 1
      30       41       15 1
      31       17       16 1
      32       42       16 1
      33       43       16 1
      34       18       17 1
      35       44       17 1
      36       45       17 1
      37       19       18 1
      38       46       18 1
      39       47       18 1
      40       20       19 1
      41       23       19 1
      42       48       19 1
      43       21       20 1
      44       27       20 1
      45       49       20 1
      46       22       21 1
      47       24       21 1
      48       50       21 1
      49       23       22 1
      50       51       22 1
      51       52       22 1
      52       25       24 1
      53       53       24 1
      54       26       25 1
      55       27       25 1
      56       54       27 1
@<TRIPOS>SUBSTRUCTURE
       1 RES             1 RESIDUE    0 **** ROOT      0
