@<TRIPOS>MOLECULE
Compound
10 9 1 0 1
SMALL
NO_CHARGES
@<TRIPOS>CRYSIN
    8.3540     7.4386     7.2971    90.0000    90.0000    90.0000 1 1
@<TRIPOS>ATOM
       1 C            1.0196    -0.1727    -0.1470 C             1 Compound
       2 C           -0.2820     0.6251    -0.0782 C             1 Compound
       3 N           -1.4097    -0.2243     0.2986 N             1 Compound
       4 H            0.9362    -0.9805    -0.9047 H             1 Compound
       5 H            1.2491    -0.6207     0.8430 H             1 Compound
       6 H            1.8539     0.5010    -0.4351 H             1 Compound
       7 H           -0.4848     1.0854    -1.0692 H             1 Compound
       8 H           -0.1740     1.4428     0.6667 H             1 Compound
       9 H           -1.2083    -0.6603     1.2279 H             1 Compound
      10 H           -1.5001    -0.9959    -0.4020 H             1 Compound
@<TRIPOS>BOND
       1        1        2 1
       2        1        4 1
       3        1        5 1
       4        1        6 1
       5        2        3 1
       6        2        7 1
       7        2        8 1
       8        3        9 1
       9        3       10 1
@<TRIPOS>SUBSTRUCTURE
       1 Compound        1 RESIDUE    0 **** ROOT      0
