@<TRIPOS>MOLECULE
RES
7 6 1 0 1
SMALL
NO_CHARGES
@<TRIPOS>CRYSIN
    7.4607     6.9693     6.6397    90.0000    90.0000    90.0000 1 1
@<TRIPOS>ATOM
       1 C           -0.5716     0.0451    -0.0118 C             1 RES     
       2 N            0.8404    -0.0115    -0.3628 N             1 RES     
       3 H           -0.7036    -0.1026     1.0824 H             1 RES     
       4 H           -0.9886     1.0330    -0.3004 H             1 RES     
       5 H           -1.1240    -0.7488    -0.5574 H             1 RES     
       6 H            1.2108    -0.9362    -0.0445 H             1 RES     
       7 H            1.3367     0.7211     0.1945 H             1 RES     
@<TRIPOS>BOND
       1        1        2 1
       2        1        3 1
       3        1        4 1
       4        1        5 1
       5        2        6 1
       6        2        7 1
@<TRIPOS>SUBSTRUCTURE
       1 RES             1 RESIDUE    0 **** ROOT      0
