@<TRIPOS>MOLECULE
RES
13 12 1 0 1
SMALL
NO_CHARGES
@<TRIPOS>CRYSIN
   10.1641     7.4635     7.0070    90.0000    90.0000    90.0000  1  1
@<TRIPOS>ATOM
       1 N            2.0347    -0.0250    -0.2556 N             1 RES     
       2 C            0.6884     0.5166    -0.1011 C             1 RES     
       3 C           -0.3346    -0.6211    -0.0529 C             1 RES     
       4 C           -1.7552    -0.0816     0.0848 C             1 RES     
       5 H            2.2984    -0.5051     0.6357 H             1 RES     
       6 H            2.6915     0.7817    -0.3627 H             1 RES     
       7 H            0.6303     1.1207     0.8324 H             1 RES     
       8 H            0.4620     1.1792    -0.9654 H             1 RES     
       9 H           -0.1146    -1.2842     0.8118 H             1 RES     
      10 H           -0.2639    -1.2232    -0.9849 H             1 RES     
      11 H           -2.0087     0.5645    -0.7826 H             1 RES     
      12 H           -1.8555     0.5061     1.0222 H             1 RES     
      13 H           -2.4727    -0.9285     0.1182 H             1 RES     
@<TRIPOS>BOND
       1        2        1 1
       2        5        1 1
       3        6        1 1
       4        3        2 1
       5        7        2 1
       6        8        2 1
       7        4        3 1
       8        9        3 1
       9       10        3 1
      10       11        4 1
      11       12        4 1
      12       13        4 1
@<TRIPOS>SUBSTRUCTURE
       1 RES             1 RESIDUE    0 **** ROOT      0
