@<TRIPOS>MOLECULE
RES
16 16 1 0 1
SMALL
NO_CHARGES
@<TRIPOS>CRYSIN
   11.6870     8.8503     7.4959    90.0000    90.0000    90.0000  1  1
@<TRIPOS>ATOM
       1 C           -2.4778    -0.1745    -0.2026 C             1 RES     
       2 C           -0.9844    -0.0595    -0.1231 C             1 RES     
       3 C           -0.3270     1.0344    -0.7080 C             1 RES     
       4 C            1.0617     1.1606    -0.6018 C             1 RES     
       5 C            1.8038     0.2044     0.0994 C             1 RES     
       6 C            1.1496    -0.8802     0.6995 C             1 RES     
       7 C           -0.2390    -1.0083     0.5946 C             1 RES     
       8 O            3.1866     0.3424     0.1968 O             1 RES     
       9 H           -2.8556     0.2742    -1.1459 H             1 RES     
      10 H           -2.9351     0.3551     0.6591 H             1 RES     
      11 H           -2.7904    -1.2403    -0.1804 H             1 RES     
      12 H           -0.8886     1.7882    -1.2460 H             1 RES     
      13 H            1.5612     2.0039    -1.0616 H             1 RES     
      14 H            1.7151    -1.6214     1.2499 H             1 RES     
      15 H           -0.7321    -1.8464     1.0716 H             1 RES     
      16 H            3.7519    -0.3325     0.6985 H             1 RES     
@<TRIPOS>BOND
       1        2        1 1
       2        9        1 1
       3       10        1 1
       4       11        1 1
       5        3        2 1
       6        7        2 1
       7        4        3 1
       8       12        3 1
       9        5        4 1
      10       13        4 1
      11        6        5 1
      12        8        5 1
      13        7        6 1
      14       14        6 1
      15       15        7 1
      16       16        8 1
@<TRIPOS>SUBSTRUCTURE
       1 RES             1 RESIDUE    0 **** ROOT      0
