@<TRIPOS>MOLECULE
RES
6 5 1 0 1
SMALL
NO_CHARGES
@<TRIPOS>CRYSIN
    7.5955     6.7325     6.5627    90.0000    90.0000    90.0000 1 1
@<TRIPOS>ATOM
       1 C           -0.3566    -0.0316    -0.0168 C             1 RES     
       2 O            0.9584    -0.4372    -0.2657 O             1 RES     
       3 H           -0.5386     0.0288     1.0783 H             1 RES     
       4 H           -1.0555    -0.7739    -0.4544 H             1 RES     
       5 H           -0.5477     0.9586    -0.4845 H             1 RES     
       6 H            1.5400     0.2553     0.1430 H             1 RES     
@<TRIPOS>BOND
       1        1        2 1
       2        1        3 1
       3        1        4 1
       4        1        5 1
       5        2        6 1
@<TRIPOS>SUBSTRUCTURE
       1 RES             1 RESIDUE    0 **** ROOT      0
