@<TRIPOS>MOLECULE
RES
12 11 1 0 1
SMALL
NO_CHARGES
@<TRIPOS>CRYSIN
    9.2456     7.3766     7.6702    90.0000    90.0000    90.0000  1  1
@<TRIPOS>ATOM
       1 C           -1.3490    -0.2597     0.3807 C             1 RES     
       2 C           -0.2062     0.6682    -0.0253 C             1 RES     
       3 C            0.9685    -0.1052    -0.6332 C             1 RES     
       4 O            1.5329    -0.9795     0.3069 O             1 RES     
       5 H           -1.7171    -0.8274    -0.5004 H             1 RES     
       6 H           -1.0116    -0.9727     1.1625 H             1 RES     
       7 H           -2.1875     0.3421     0.7902 H             1 RES     
       8 H           -0.5840     1.3971    -0.7744 H             1 RES     
       9 H            0.1411     1.2376     0.8639 H             1 RES     
      10 H            1.7374     0.6124    -0.9993 H             1 RES     
      11 H            0.6174    -0.6936    -1.5077 H             1 RES     
      12 H            2.0581    -0.4193     0.9363 H             1 RES     
@<TRIPOS>BOND
       1        2        1 1
       2        5        1 1
       3        6        1 1
       4        7        1 1
       5        3        2 1
       6        8        2 1
       7        9        2 1
       8        4        3 1
       9       10        3 1
      10       11        3 1
      11       12        4 1
@<TRIPOS>SUBSTRUCTURE
       1 RES             1 RESIDUE    0 **** ROOT      0
