@<TRIPOS>MOLECULE
RES
17 17 1 0 1
SMALL
NO_CHARGES
@<TRIPOS>CRYSIN
   11.6923     9.2450     6.7140    90.0000    90.0000    90.0000  1  1
@<TRIPOS>ATOM
       1 C           -2.7181    -0.0216    -0.0152 C             1 RES     
       2 C           -1.2185    -0.0036    -0.0374 C             1 RES     
       3 C           -0.5000    -1.1903    -0.2505 C             1 RES     
       4 C            0.8982    -1.1803    -0.2344 C             1 RES     
       5 C            1.5932     0.0129     0.0076 C             1 RES     
       6 C            0.8767     1.1957     0.2383 C             1 RES     
       7 C           -0.5216     1.1866     0.2224 C             1 RES     
       8 N            3.0230     0.0225     0.0247 N             1 RES     
       9 H           -3.1107    -0.8058    -0.6971 H             1 RES     
      10 H           -3.0694    -0.2301     1.0169 H             1 RES     
      11 H           -3.1267     0.9569    -0.3464 H             1 RES     
      12 H           -1.0217    -2.1224    -0.4295 H             1 RES     
      13 H            1.4394    -2.1022    -0.4067 H             1 RES     
      14 H            1.4011     2.1226     0.4338 H             1 RES     
      15 H           -1.0601     2.1070     0.4119 H             1 RES     
      16 H            3.5656    -0.8539    -0.1442 H             1 RES     
      17 H            3.5496     0.9061     0.2059 H             1 RES     
@<TRIPOS>BOND
       1        2        1 1
       2        9        1 1
       3       10        1 1
       4       11        1 1
       5        3        2 1
       6        7        2 1
       7        4        3 1
       8       12        3 1
       9        5        4 1
      10       13        4 1
      11        6        5 1
      12        8        5 1
      13        7        6 1
      14       14        6 1
      15       15        7 1
      16       16        8 1
      17       17        8 1
@<TRIPOS>SUBSTRUCTURE
       1 RES             1 RESIDUE    0 **** ROOT      0
