@<TRIPOS>MOLECULE
RES
39 38 1 0 1
SMALL
NO_CHARGES
@<TRIPOS>CRYSIN
   16.7849    11.8953     9.8715    90.0000    90.0000    90.0000  1  1
@<TRIPOS>ATOM
       1 C            4.4174    -2.4710     1.5055 C             1 RES     
       2 C            4.1281    -1.4115     0.4768 C             1 RES     
       3 C            5.1400    -0.7884    -0.1371 C             1 RES     
       4 C            2.7271    -1.1198     0.1008 C             1 RES     
       5 O            1.7872    -1.7687     0.6374 O             1 RES     
       6 O            2.4458    -0.1331    -0.8539 O             1 RES     
       7 C            1.1225     0.2471    -1.2270 C             1 RES     
       8 C            0.5003     1.1434    -0.1338 C             1 RES     
       9 N           -0.8698     1.6676    -0.4394 N             1 RES     
      10 C           -0.7975     2.6417    -1.5601 C             1 RES     
      11 C           -1.3583     2.4082     0.7530 C             1 RES     
      12 C           -1.8527     0.6007    -0.8139 C             1 RES     
      13 C           -2.0401    -0.5202     0.2390 C             1 RES     
      14 C           -2.9419    -1.6549    -0.2692 C             1 RES     
      15 S           -4.6539    -1.1624    -0.4488 S             1 RES     
      16 O           -5.6161    -2.5387    -0.4773 O             1 RES     
      17 O           -4.8397    -0.4100    -1.7361 O             1 RES     
      18 O           -5.0722    -0.2937     0.7042 O             1 RES     
      19 H            3.6972    -2.3948     2.3472 H             1 RES     
      20 H            4.3241    -3.4738     1.0386 H             1 RES     
      21 H            5.4403    -2.3643     1.9269 H             1 RES     
      22 H            6.1688    -1.0184     0.1110 H             1 RES     
      23 H            4.9648    -0.0397    -0.8991 H             1 RES     
      24 H            0.5175    -0.6663    -1.4041 H             1 RES     
      25 H            1.1947     0.8038    -2.1817 H             1 RES     
      26 H            0.4969     0.5778     0.8229 H             1 RES     
      27 H            1.2001     1.9930     0.0399 H             1 RES     
      28 H           -1.7723     3.1611    -1.7034 H             1 RES     
      29 H           -0.0254     3.4215    -1.3729 H             1 RES     
      30 H           -0.5589     2.1446    -2.5243 H             1 RES     
      31 H           -2.4035     2.7639     0.6103 H             1 RES     
      32 H           -1.3320     1.7785     1.6680 H             1 RES     
      33 H           -0.7222     3.2986     0.9597 H             1 RES     
      34 H           -1.5668     0.1342    -1.7824 H             1 RES     
      35 H           -2.8462     1.0673    -0.9956 H             1 RES     
      36 H           -2.4710    -0.1125     1.1763 H             1 RES     
      37 H           -1.0629    -0.9793     0.4869 H             1 RES     
      38 H           -2.5659    -2.0412    -1.2406 H             1 RES     
      39 H           -2.9037    -2.4902     0.4620 H             1 RES     
@<TRIPOS>BOND
       1        2        1 1
       2       19        1 1
       3       20        1 1
       4       21        1 1
       5        3        2 1
       6        4        2 1
       7       22        3 1
       8       23        3 1
       9        5        4 1
      10        6        4 1
      11        7        6 1
      12        8        7 1
      13       24        7 1
      14       25        7 1
      15        9        8 1
      16       26        8 1
      17       27        8 1
      18       10        9 1
      19       11        9 1
      20       12        9 1
      21       28       10 1
      22       29       10 1
      23       30       10 1
      24       31       11 1
      25       32       11 1
      26       33       11 1
      27       13       12 1
      28       34       12 1
      29       35       12 1
      30       14       13 1
      31       36       13 1
      32       37       13 1
      33       15       14 1
      34       38       14 1
      35       39       14 1
      36       16       15 1
      37       17       15 1
      38       18       15 1
@<TRIPOS>SUBSTRUCTURE
       1 RES             1 RESIDUE    0 **** ROOT      0
