@<TRIPOS>MOLECULE
RES
19 19 1 0 1
SMALL
NO_CHARGES
@<TRIPOS>CRYSIN
   13.2453     9.6755     6.6634    90.0000    90.0000    90.0000  1  1
@<TRIPOS>ATOM
       1 C           -3.1434    -0.4970    -0.1511 C             1 RES
       2 C           -1.6749    -0.1969    -0.0902 C             1 RES
       3 C           -1.2300     1.1158     0.1173 C             1 RES
       4 C            0.1372     1.3908     0.2121 C             1 RES
       5 C            1.0847     0.3591     0.1059 C             1 RES
       6 C            0.6308    -0.9637    -0.0711 C             1 RES
       7 C           -0.7375    -1.2364    -0.1650 C             1 RES
       8 C            2.5236     0.7039     0.2209 C             1 RES
       9 C            3.5198    -0.0953    -0.1633 C             1 RES
      10 H           -3.3356    -1.3846    -0.7907 H             1 RES
      11 H           -3.7014     0.3624    -0.5803 H             1 RES
      12 H           -3.5215    -0.6995     0.8727 H             1 RES
      13 H           -1.9413     1.9278     0.2057 H             1 RES
      14 H            0.4563     2.4147     0.3656 H             1 RES
      15 H            1.3193    -1.7954    -0.1137 H             1 RES
      16 H           -1.0660    -2.2609    -0.2910 H             1 RES
      17 H            2.7870     1.6813     0.6082 H             1 RES
      18 H            3.3490    -1.0645    -0.6084 H             1 RES
      19 H            4.5440     0.2384    -0.0569 H             1 RES
@<TRIPOS>BOND
       1        2        1 1
       2       10        1 1
       3       11        1 1
       4       12        1 1
       5        3        2 1
       6        7        2 1
       7        4        3 1
       8       13        3 1
       9        5        4 1
      10       14        4 1
      11        6        5 1
      12        8        5 1
      13        7        6 1
      14       15        6 1
      15       16        7 1
      16        9        8 1
      17       17        8 1
      18       18        9 1
      19       19        9 1
@<TRIPOS>SUBSTRUCTURE
       1 RES             1 RESIDUE    0 **** ROOT      0
