@<TRIPOS>MOLECULE
RES
12 11 1 0 1
SMALL
NO_CHARGES
@<TRIPOS>CRYSIN
    9.5592     8.9732     6.9773    90.0000    90.0000    90.0000  1  1
@<TRIPOS>ATOM
       1 C           -1.2442    -0.6950    -0.0288 C             1 RES
       2 C           -0.1265     0.2925     0.1630 C             1 RES
       3 C           -0.3963     1.5210     0.6208 C             1 RES
       4 C            1.2492    -0.0873    -0.2299 C             1 RES
       5 O            2.2097     0.7149    -0.0725 O             1 RES
       6 O            1.4920    -1.3424    -0.7813 O             1 RES
       7 H           -2.1319    -0.4336     0.5869 H             1 RES
       8 H           -1.5415    -0.7128    -1.0982 H             1 RES
       9 H           -0.9135    -1.7113     0.2723 H             1 RES
      10 H            0.3834     2.2619     0.7445 H             1 RES
      11 H           -1.4076     1.8100     0.8791 H             1 RES
      12 H            2.4273    -1.6180    -1.0559 H             1 RES
@<TRIPOS>BOND
       1        2        1 1
       2        7        1 1
       3        8        1 1
       4        9        1 1
       5        3        2 1
       6        4        2 1
       7       10        3 1
       8       11        3 1
       9        5        4 1
      10        6        4 1
      11       12        6 1
@<TRIPOS>SUBSTRUCTURE
       1 RES             1 RESIDUE    0 **** ROOT      0
