@<TRIPOS>MOLECULE
RES
8 7 1 0 1
SMALL
NO_CHARGES
@<TRIPOS>CRYSIN
    8.9658     7.4334     6.6414    90.0000    90.0000    90.0000  1  1
@<TRIPOS>ATOM
       1 C           -0.9948    -0.0658    -0.0196 C             1 RES     
       2 C            0.4544     0.2785     0.0459 C             1 RES     
       3 O            0.8101     1.4560     0.3181 O             1 RES     
       4 O            1.4124    -0.7115    -0.1474 O             1 RES     
       5 H           -1.5651     0.7707    -0.4759 H             1 RES     
       6 H           -1.3770    -0.2542     1.0051 H             1 RES     
       7 H           -1.1407    -0.9774    -0.6363 H             1 RES     
       8 H            2.4007    -0.4963    -0.0900 H             1 RES     
@<TRIPOS>BOND
       1        2        1 1
       2        5        1 1
       3        6        1 1
       4        7        1 1
       5        3        2 1
       6        4        2 1
       7        8        4 1
@<TRIPOS>SUBSTRUCTURE
       1 RES             1 RESIDUE    0 **** ROOT      0
