@<TRIPOS>MOLECULE
RES
7 6 1 0 1
SMALL
NO_CHARGES
@<TRIPOS>CRYSIN
    7.5080     6.9935     6.8085    90.0000    90.0000    90.0000  1  1
@<TRIPOS>ATOM
       1 O            1.4638     1.0463     0.0136 O             1 RES     
       2 C            0.8499    -0.0087     0.0085 C             1 RES     
       3 C           -0.6442    -0.0171    -0.0064 C             1 RES     
       4 H            1.3940    -0.9473     0.0150 H             1 RES     
       5 H           -1.0187    -0.5448     0.8950 H             1 RES     
       6 H           -1.0442     1.0195    -0.0122 H             1 RES     
       7 H           -1.0006    -0.5479    -0.9134 H             1 RES     
@<TRIPOS>BOND
       1        2        1 1
       2        3        2 1
       3        4        2 1
       4        5        3 1
       5        6        3 1
       6        7        3 1
@<TRIPOS>SUBSTRUCTURE
       1 RES             1 RESIDUE    0 **** ROOT      0
