@<TRIPOS>MOLECULE
RES
3 2 1 0 1
SMALL
NO_CHARGES
@<TRIPOS>CRYSIN
    6.5659     5.6181    15.0000    90.0000    90.0000    90.0000  1  1
@<TRIPOS>ATOM
       1 O            0.0062     0.4041     0.0000 O             1 RES
       2 H           -0.7860    -0.1900     0.0000 H             1 RES
       3 H            0.7799    -0.2140     0.0000 H             1 RES
@<TRIPOS>BOND
       1        2        1 1
       2        3        1 1
@<TRIPOS>SUBSTRUCTURE
       1 RES             1 RESIDUE    0 **** ROOT      0
