@<TRIPOS>MOLECULE
RES
12 12 1 0 1
SMALL
NO_CHARGES
@<TRIPOS>CRYSIN
    9.8842    10.5066     5.1003    90.0000    90.0000    90.0000  1  1
@<TRIPOS>ATOM
       1 C           -0.0582     1.3984    -0.0255 C             1 RES
       2 C           -1.2404     0.6487    -0.0176 C             1 RES
       3 C           -1.1821    -0.7497     0.0079 C             1 RES
       4 C            0.0582    -1.3984     0.0255 C             1 RES
       5 C            1.2404    -0.6487     0.0176 C             1 RES
       6 C            1.1821     0.7497    -0.0079 C             1 RES
       7 F            2.3275     1.4761    -0.0156 F             1 RES
       8 F            2.4421    -1.2772     0.0346 F             1 RES
       9 F            0.1146    -2.7533     0.0502 F             1 RES
      10 F           -2.3275    -1.4761     0.0156 F             1 RES
      11 F           -2.4421     1.2772    -0.0346 F             1 RES
      12 F           -0.1146     2.7533    -0.0502 F             1 RES
@<TRIPOS>BOND
       1        2        1 1
       2       12        1 1
       3        6        1 1
       4        3        2 1
       5       11        2 1
       6        4        3 1
       7       10        3 1
       8        5        4 1
       9        9        4 1
      10        6        5 1
      11        8        5 1
      12        7        6 1
@<TRIPOS>SUBSTRUCTURE
       1 RES             1 RESIDUE    0 **** ROOT      0
