@<TRIPOS>MOLECULE
RES
15 15 1 0 1
SMALL
NO_CHARGES
@<TRIPOS>CRYSIN
   10.8170     9.3134     6.6216    90.0000    90.0000    90.0000  1  1
@<TRIPOS>ATOM
       1 C            2.2190    -0.0164    -0.1048 C             1 RES
       2 C            0.7225    -0.0074    -0.0040 C             1 RES
       3 C            0.0013    -1.2105    -0.0733 C             1 RES
       4 C           -1.3962    -1.1975    -0.0166 C             1 RES
       5 C           -2.0815     0.0155     0.0966 C             1 RES
       6 C           -1.3706     1.2178     0.1482 C             1 RES
       7 C            0.0269     1.2090     0.0917 C             1 RES
       8 H            2.5175     0.0531    -1.1716 H             1 RES
       9 H            2.6351    -0.9510     0.3280 H             1 RES
      10 H            2.6541     0.8421     0.4501 H             1 RES
      11 H            0.5198    -2.1564    -0.1705 H             1 RES
      12 H           -1.9479    -2.1274    -0.0642 H             1 RES
      13 H           -3.1629     0.0240     0.1391 H             1 RES
      14 H           -1.9025     2.1570     0.2281 H             1 RES
      15 H            0.5654     2.1481     0.1231 H             1 RES
@<TRIPOS>BOND
       1        2        1 1
       2        8        1 1
       3        9        1 1
       4       10        1 1
       5        3        2 1
       6        7        2 1
       7        4        3 1
       8       11        3 1
       9        5        4 1
      10       12        4 1
      11        6        5 1
      12       13        5 1
      13        7        6 1
      14       14        6 1
      15       15        7 1
@<TRIPOS>SUBSTRUCTURE
       1 RES             1 RESIDUE    0 **** ROOT      0
