@<TRIPOS>MOLECULE
RES
5 4 1 0 1
SMALL
NO_CHARGES
@<TRIPOS>CRYSIN
    7.2417     7.0495     6.6674    90.0000    90.0000    90.0000  1  1
@<TRIPOS>ATOM
       1 C            0.0036    -0.0025     0.0543 C             1 RES     
       2 F           -0.1456     1.3141    -0.3367 F             1 RES     
       3 F           -1.0878    -0.7354    -0.3703 F             1 RES     
       4 F            1.1539    -0.5221    -0.5073 F             1 RES     
       5 H            0.0760    -0.0540     1.1601 H             1 RES     
@<TRIPOS>BOND
       1        2        1 1
       2        3        1 1
       3        4        1 1
       4        5        1 1
@<TRIPOS>SUBSTRUCTURE
       1 RES             1 RESIDUE    0 **** ROOT      0
